iidm/iidm-xml-converter/src/test/resources/lcc-STATE.xiidm
<?xml version="1.0" encoding="UTF-8"?>
<iidm:network xmlns:iidm="http://www.itesla_project.eu/schema/iidm/1_0" id="hvdctest" caseDate="2016-06-27T16:34:55.930+02:00" forecastDistance="0" sourceFormat="test">
    <iidm:substation id="S1">
        <iidm:voltageLevel id="VL1">
            <iidm:shunt id="C1_Filter1" q="25.0"/>
            <iidm:shunt id="C1_Filter2" q="25.0"/>
            <iidm:lccConverterStation id="C1" p="100.0" q="50.0"/>
        </iidm:voltageLevel>
    </iidm:substation>
    <iidm:substation id="S2">
        <iidm:voltageLevel id="VL2">
            <iidm:shunt id="C2_Filter1" q="12.5"/>
            <iidm:shunt id="C2_Filter2" q="12.5"/>
            <iidm:lccConverterStation id="C2" p="75.0" q="25.0"/>
        </iidm:voltageLevel>
    </iidm:substation>
</iidm:network>